
     RDKit          3D

 26 26  0  0  0  0  0  0  0  0999 V2000
   -3.6347   -0.5895   -1.0958 C   0  0  0  0  0  0  0  0  0  0  0  0
   -3.0026    0.6260   -0.7723 O   0  0  0  0  0  0  0  0  0  0  0  0
   -1.7369    0.7304   -0.2106 C   0  0  0  0  0  0  0  0  0  0  0  0
   -0.9530   -0.3631    0.0915 C   0  0  0  0  0  0  0  0  0  0  0  0
    0.3066   -0.1645    0.6554 C   0  0  0  0  0  0  0  0  0  0  0  0
    1.0888   -1.3603    0.9607 C   0  0  0  0  0  0  0  0  0  0  0  0
    1.9774   -1.8441   -0.1545 C   0  0  0  0  0  0  0  0  0  0  0  0
    2.9704   -0.8495   -0.5619 C   0  0  0  0  0  0  0  0  0  0  0  0
    4.0358   -0.5915    0.2905 O   0  0  0  0  0  0  0  0  0  0  0  0
    2.8882   -0.2416   -1.6282 O   0  0  0  0  0  0  0  0  0  0  0  0
    0.8126    1.0886    0.9277 C   0  0  0  0  0  0  0  0  0  0  0  0
    0.0280    2.1789    0.6252 C   0  0  0  0  0  0  0  0  0  0  0  0
   -1.2372    1.9826    0.0595 C   0  0  0  0  0  0  0  0  0  0  0  0
   -2.0066    3.0975   -0.2357 O   0  0  0  0  0  0  0  0  0  0  0  0
   -3.4523   -1.3007   -0.2451 H   0  0  0  0  0  0  0  0  0  0  0  0
   -4.7158   -0.4358   -1.2582 H   0  0  0  0  0  0  0  0  0  0  0  0
   -3.1752   -1.0345   -2.0127 H   0  0  0  0  0  0  0  0  0  0  0  0
   -1.3418   -1.3544   -0.1190 H   0  0  0  0  0  0  0  0  0  0  0  0
    1.7710   -1.1159    1.8186 H   0  0  0  0  0  0  0  0  0  0  0  0
    0.4571   -2.1922    1.2965 H   0  0  0  0  0  0  0  0  0  0  0  0
    1.3408   -2.1946   -1.0196 H   0  0  0  0  0  0  0  0  0  0  0  0
    2.5060   -2.7440    0.2162 H   0  0  0  0  0  0  0  0  0  0  0  0
    4.4946    0.3100    0.2483 H   0  0  0  0  0  0  0  0  0  0  0  0
    1.8042    1.1573    1.3684 H   0  0  0  0  0  0  0  0  0  0  0  0
    0.4148    3.1618    0.8359 H   0  0  0  0  0  0  0  0  0  0  0  0
   -1.6404    4.0429   -0.0365 H   0  0  0  0  0  0  0  0  0  0  0  0
  1  2  1  0
  2  3  1  0
  3  4  2  0
  4  5  1  0
  5  6  1  0
  6  7  1  0
  7  8  1  0
  8  9  1  0
  8 10  2  0
  5 11  2  0
 11 12  1  0
 12 13  2  0
 13 14  1  0
 13  3  1  0
  1 15  1  0
  1 16  1  0
  1 17  1  0
  4 18  1  0
  6 19  1  0
  6 20  1  0
  7 21  1  0
  7 22  1  0
  9 23  1  0
 11 24  1  0
 12 25  1  0
 14 26  1  0
M  END
