
     RDKit          3D

 31 31  0  0  0  0  0  0  0  0999 V2000
   -0.9740   -3.9208    0.1846 C   0  0  0  0  0  0  0  0  0  0  0  0
   -1.9298   -2.8850    0.1390 O   0  0  0  0  0  0  0  0  0  0  0  0
   -1.4805   -1.5972   -0.1018 C   0  0  0  0  0  0  0  0  0  0  0  0
   -0.1413   -1.3029   -0.2959 C   0  0  0  0  0  0  0  0  0  0  0  0
    0.2309    0.0054   -0.5311 C   0  0  0  0  0  0  0  0  0  0  0  0
    1.6555    0.3879   -0.7478 C   0  0  0  0  0  0  0  0  0  0  0  0
    2.2741    0.7220    0.6032 C   0  0  0  0  0  0  0  0  0  0  0  0
    3.7156    1.1033    0.3344 C   0  0  0  0  0  0  0  0  0  0  0  0
    4.3861    1.4313    1.5036 O   0  0  0  0  0  0  0  0  0  0  0  0
   -0.7181    1.0035   -0.5717 C   0  0  0  0  0  0  0  0  0  0  0  0
   -2.0609    0.7389   -0.3815 C   0  0  0  0  0  0  0  0  0  0  0  0
   -3.0364    1.7126   -0.4155 O   0  0  0  0  0  0  0  0  0  0  0  0
   -2.7284    3.0895   -0.6536 C   0  0  0  0  0  0  0  0  0  0  0  0
   -2.4237   -0.5707   -0.1472 C   0  0  0  0  0  0  0  0  0  0  0  0
   -3.7818   -0.8481    0.0465 O   0  0  0  0  0  0  0  0  0  0  0  0
   -1.5406   -4.8772    0.2796 H   0  0  0  0  0  0  0  0  0  0  0  0
   -0.3009   -3.8360    1.0836 H   0  0  0  0  0  0  0  0  0  0  0  0
   -0.3091   -3.9307   -0.7150 H   0  0  0  0  0  0  0  0  0  0  0  0
    0.6052   -2.0918   -0.2634 H   0  0  0  0  0  0  0  0  0  0  0  0
    1.7636    1.2533   -1.3999 H   0  0  0  0  0  0  0  0  0  0  0  0
    2.1531   -0.4861   -1.2035 H   0  0  0  0  0  0  0  0  0  0  0  0
    1.7239    1.5014    1.1314 H   0  0  0  0  0  0  0  0  0  0  0  0
    2.2357   -0.1971    1.2565 H   0  0  0  0  0  0  0  0  0  0  0  0
    4.1761    0.2297   -0.1793 H   0  0  0  0  0  0  0  0  0  0  0  0
    3.6978    1.9305   -0.3995 H   0  0  0  0  0  0  0  0  0  0  0  0
    5.2491    0.9479    1.5550 H   0  0  0  0  0  0  0  0  0  0  0  0
   -0.4006    2.0252   -0.7583 H   0  0  0  0  0  0  0  0  0  0  0  0
   -2.1291    3.4916    0.1712 H   0  0  0  0  0  0  0  0  0  0  0  0
   -3.6574    3.6737   -0.8074 H   0  0  0  0  0  0  0  0  0  0  0  0
   -2.1912    3.0990   -1.6326 H   0  0  0  0  0  0  0  0  0  0  0  0
   -4.0632   -1.8031    0.2193 H   0  0  0  0  0  0  0  0  0  0  0  0
  1  2  1  0
  2  3  1  0
  3  4  2  0
  4  5  1  0
  5  6  1  0
  6  7  1  0
  7  8  1  0
  8  9  1  0
  5 10  2  0
 10 11  1  0
 11 12  1  0
 12 13  1  0
 11 14  2  0
 14 15  1  0
 14  3  1  0
  1 16  1  0
  1 17  1  0
  1 18  1  0
  4 19  1  0
  6 20  1  0
  6 21  1  0
  7 22  1  0
  7 23  1  0
  8 24  1  0
  8 25  1  0
  9 26  1  0
 10 27  1  0
 13 28  1  0
 13 29  1  0
 13 30  1  0
 15 31  1  0
M  END
