
     RDKit          3D

 27 27  0  0  0  0  0  0  0  0999 V2000
   -3.6410   -1.2375    0.1793 C   0  0  0  0  0  0  0  0  0  0  0  0
   -3.3688    0.1486    0.1205 O   0  0  0  0  0  0  0  0  0  0  0  0
   -2.0956    0.6618   -0.0526 C   0  0  0  0  0  0  0  0  0  0  0  0
   -1.0037   -0.1692   -0.1795 C   0  0  0  0  0  0  0  0  0  0  0  0
    0.2832    0.3290   -0.3541 C   0  0  0  0  0  0  0  0  0  0  0  0
    1.4605   -0.5686   -0.4909 C   0  0  0  0  0  0  0  0  0  0  0  0
    2.0762   -0.8769    0.8564 C   0  0  0  0  0  0  0  0  0  0  0  0
    3.2712   -1.7862    0.7321 C   0  0  0  0  0  0  0  0  0  0  0  0
    4.2865   -1.2626   -0.0397 O   0  0  0  0  0  0  0  0  0  0  0  0
    0.4089    1.7022   -0.3935 C   0  0  0  0  0  0  0  0  0  0  0  0
   -0.6550    2.5726   -0.2709 C   0  0  0  0  0  0  0  0  0  0  0  0
   -1.9354    2.0303   -0.0964 C   0  0  0  0  0  0  0  0  0  0  0  0
   -2.9901    2.9138    0.0248 O   0  0  0  0  0  0  0  0  0  0  0  0
   -3.5284   -1.6371   -0.8522 H   0  0  0  0  0  0  0  0  0  0  0  0
   -2.8664   -1.7362    0.7982 H   0  0  0  0  0  0  0  0  0  0  0  0
   -4.6591   -1.4409    0.5191 H   0  0  0  0  0  0  0  0  0  0  0  0
   -1.1335   -1.2233   -0.1450 H   0  0  0  0  0  0  0  0  0  0  0  0
    2.2380   -0.1536   -1.1462 H   0  0  0  0  0  0  0  0  0  0  0  0
    1.0888   -1.4997   -0.9667 H   0  0  0  0  0  0  0  0  0  0  0  0
    2.3082    0.0559    1.3957 H   0  0  0  0  0  0  0  0  0  0  0  0
    1.3244   -1.4270    1.4746 H   0  0  0  0  0  0  0  0  0  0  0  0
    3.0028   -2.7797    0.3275 H   0  0  0  0  0  0  0  0  0  0  0  0
    3.6138   -1.9841    1.7904 H   0  0  0  0  0  0  0  0  0  0  0  0
    4.5068   -0.3303    0.2462 H   0  0  0  0  0  0  0  0  0  0  0  0
    1.3865    2.1448   -0.5272 H   0  0  0  0  0  0  0  0  0  0  0  0
   -0.5108    3.6511   -0.3077 H   0  0  0  0  0  0  0  0  0  0  0  0
   -2.8681    3.9026   -0.0076 H   0  0  0  0  0  0  0  0  0  0  0  0
  1  2  1  0
  2  3  1  0
  3  4  2  0
  4  5  1  0
  5  6  1  0
  6  7  1  0
  7  8  1  0
  8  9  1  0
  5 10  2  0
 10 11  1  0
 11 12  2  0
 12 13  1  0
 12  3  1  0
  1 14  1  0
  1 15  1  0
  1 16  1  0
  4 17  1  0
  6 18  1  0
  6 19  1  0
  7 20  1  0
  7 21  1  0
  8 22  1  0
  8 23  1  0
  9 24  1  0
 10 25  1  0
 11 26  1  0
 13 27  1  0
M  END
