
     RDKit          3D

 26 26  0  0  0  0  0  0  0  0999 V2000
   -3.8399    1.2157   -1.1122 C   0  0  0  0  0  0  0  0  0  0  0  0
   -2.8571    0.6033   -0.5462 O   0  0  0  0  0  0  0  0  0  0  0  0
   -1.8783    0.0007    0.0133 C   0  0  0  0  0  0  0  0  0  0  0  0
   -0.5846    0.5373   -0.0006 C   0  0  0  0  0  0  0  0  0  0  0  0
    0.4618   -0.1024    0.5949 C   0  0  0  0  0  0  0  0  0  0  0  0
    1.8472    0.4995    0.5674 C   0  0  0  0  0  0  0  0  0  0  0  0
    2.5755    0.0193   -0.6520 C   0  0  0  0  0  0  0  0  0  0  0  0
    3.9447    0.5839   -0.7133 C   0  0  0  0  0  0  0  0  0  0  0  0
    5.0130   -0.1473   -0.2513 O   0  0  0  0  0  0  0  0  0  0  0  0
    4.1668    1.7358   -1.1844 O   0  0  0  0  0  0  0  0  0  0  0  0
    0.2452   -1.3068    1.2272 C   0  0  0  0  0  0  0  0  0  0  0  0
   -1.0005   -1.8811    1.2731 C   0  0  0  0  0  0  0  0  0  0  0  0
   -2.0574   -1.2456    0.6776 C   0  0  0  0  0  0  0  0  0  0  0  0
   -3.3236   -1.7729    0.6925 O   0  0  0  0  0  0  0  0  0  0  0  0
   -4.7876    0.5751   -1.2295 H   0  0  0  0  0  0  0  0  0  0  0  0
   -4.1852    2.1173   -0.4843 H   0  0  0  0  0  0  0  0  0  0  0  0
   -3.6649    1.6541   -2.1613 H   0  0  0  0  0  0  0  0  0  0  0  0
   -0.3957    1.4734   -0.4882 H   0  0  0  0  0  0  0  0  0  0  0  0
    2.3630    0.1267    1.4918 H   0  0  0  0  0  0  0  0  0  0  0  0
    1.7205    1.5850    0.6270 H   0  0  0  0  0  0  0  0  0  0  0  0
    2.5721   -1.0857   -0.6535 H   0  0  0  0  0  0  0  0  0  0  0  0
    2.0308    0.3930   -1.5449 H   0  0  0  0  0  0  0  0  0  0  0  0
    5.7958    0.3255    0.2122 H   0  0  0  0  0  0  0  0  0  0  0  0
    1.0905   -1.7922    1.6898 H   0  0  0  0  0  0  0  0  0  0  0  0
   -1.1703   -2.8311    1.7722 H   0  0  0  0  0  0  0  0  0  0  0  0
   -4.0817   -1.2806    0.2467 H   0  0  0  0  0  0  0  0  0  0  0  0
  1  2  1  0
  2  3  1  0
  3  4  2  0
  4  5  1  0
  5  6  1  0
  6  7  1  0
  7  8  1  0
  8  9  1  0
  8 10  2  0
  5 11  2  0
 11 12  1  0
 12 13  2  0
 13 14  1  0
 13  3  1  0
  1 15  1  0
  1 16  1  0
  1 17  1  0
  4 18  1  0
  6 19  1  0
  6 20  1  0
  7 21  1  0
  7 22  1  0
  9 23  1  0
 11 24  1  0
 12 25  1  0
 14 26  1  0
M  END
