
     RDKit          3D

 26 26  0  0  0  0  0  0  0  0999 V2000
   -2.6949   -0.1258    2.4646 C   0  0  0  0  0  0  0  0  0  0  0  0
   -3.0269    0.0608    1.0938 O   0  0  0  0  0  0  0  0  0  0  0  0
   -2.0498   -0.0879    0.1034 C   0  0  0  0  0  0  0  0  0  0  0  0
   -0.7486   -0.4150    0.4023 C   0  0  0  0  0  0  0  0  0  0  0  0
    0.1968   -0.5567   -0.5834 C   0  0  0  0  0  0  0  0  0  0  0  0
    1.5949   -0.9121   -0.2130 C   0  0  0  0  0  0  0  0  0  0  0  0
    2.3330    0.3906    0.0077 C   0  0  0  0  0  0  0  0  0  0  0  0
    3.7590    0.1482    0.3875 C   0  0  0  0  0  0  0  0  0  0  0  0
    4.5362    1.2755    0.6159 O   0  0  0  0  0  0  0  0  0  0  0  0
    4.2619   -0.9788    0.5037 O   0  0  0  0  0  0  0  0  0  0  0  0
   -0.1566   -0.3699   -1.8941 C   0  0  0  0  0  0  0  0  0  0  0  0
   -1.4620   -0.0419   -2.1918 C   0  0  0  0  0  0  0  0  0  0  0  0
   -2.4143    0.1018   -1.2099 C   0  0  0  0  0  0  0  0  0  0  0  0
   -3.7440    0.4340   -1.4901 O   0  0  0  0  0  0  0  0  0  0  0  0
   -3.4931    0.3516    3.0954 H   0  0  0  0  0  0  0  0  0  0  0  0
   -1.7579    0.4028    2.7442 H   0  0  0  0  0  0  0  0  0  0  0  0
   -2.6336   -1.2198    2.6440 H   0  0  0  0  0  0  0  0  0  0  0  0
   -0.4917   -0.5598    1.4676 H   0  0  0  0  0  0  0  0  0  0  0  0
    1.5643   -1.5396    0.6910 H   0  0  0  0  0  0  0  0  0  0  0  0
    2.0250   -1.4753   -1.0637 H   0  0  0  0  0  0  0  0  0  0  0  0
    2.2548    0.9871   -0.9112 H   0  0  0  0  0  0  0  0  0  0  0  0
    1.8690    0.9194    0.8655 H   0  0  0  0  0  0  0  0  0  0  0  0
    5.4984    1.2599    0.8627 H   0  0  0  0  0  0  0  0  0  0  0  0
    0.5672   -0.4731   -2.7143 H   0  0  0  0  0  0  0  0  0  0  0  0
   -1.7787    0.1137   -3.2168 H   0  0  0  0  0  0  0  0  0  0  0  0
   -4.0084    0.5731   -2.4608 H   0  0  0  0  0  0  0  0  0  0  0  0
  1  2  1  0
  2  3  1  0
  3  4  2  0
  4  5  1  0
  5  6  1  0
  6  7  1  0
  7  8  1  0
  8  9  1  0
  8 10  2  0
  5 11  2  0
 11 12  1  0
 12 13  2  0
 13 14  1  0
 13  3  1  0
  1 15  1  0
  1 16  1  0
  1 17  1  0
  4 18  1  0
  6 19  1  0
  6 20  1  0
  7 21  1  0
  7 22  1  0
  9 23  1  0
 11 24  1  0
 12 25  1  0
 14 26  1  0
M  END
