
     RDKit          3D

 18 18  0  0  0  0  0  0  0  0999 V2000
    3.7073   -0.2093   -0.2450 O   0  0  0  0  0  0  0  0  0  0  0  0
    2.3175   -0.1613   -0.3366 C   0  0  0  0  0  0  0  0  0  0  0  0
    1.7601   -0.4411   -1.4220 O   0  0  0  0  0  0  0  0  0  0  0  0
    1.4670    0.2112    0.8112 C   0  0  0  0  0  0  0  0  0  0  0  0
    0.0480    0.1660    0.3873 C   0  0  0  0  0  0  0  0  0  0  0  0
   -0.6071    1.2585   -0.1424 C   0  0  0  0  0  0  0  0  0  0  0  0
   -1.9299    1.1644   -0.5221 C   0  0  0  0  0  0  0  0  0  0  0  0
   -2.6644    0.0028   -0.4000 C   0  0  0  0  0  0  0  0  0  0  0  0
   -2.0146   -1.0928    0.1290 C   0  0  0  0  0  0  0  0  0  0  0  0
   -0.6926   -1.0031    0.5097 C   0  0  0  0  0  0  0  0  0  0  0  0
    4.1805   -0.9115   -0.8259 H   0  0  0  0  0  0  0  0  0  0  0  0
    1.6746   -0.5376    1.6161 H   0  0  0  0  0  0  0  0  0  0  0  0
    1.6826    1.2385    1.1769 H   0  0  0  0  0  0  0  0  0  0  0  0
   -0.0411    2.1879   -0.2468 H   0  0  0  0  0  0  0  0  0  0  0  0
   -2.4265    2.0345   -0.9362 H   0  0  0  0  0  0  0  0  0  0  0  0
   -3.7014   -0.0315   -0.7095 H   0  0  0  0  0  0  0  0  0  0  0  0
   -2.5878   -2.0219    0.2310 H   0  0  0  0  0  0  0  0  0  0  0  0
   -0.1720   -1.8536    0.9253 H   0  0  0  0  0  0  0  0  0  0  0  0
  1  2  1  0
  2  3  2  0
  2  4  1  0
  4  5  1  0
  5  6  2  0
  6  7  1  0
  7  8  2  0
  8  9  1  0
  9 10  2  0
 10  5  1  0
  1 11  1  0
  4 12  1  0
  4 13  1  0
  6 14  1  0
  7 15  1  0
  8 16  1  0
  9 17  1  0
 10 18  1  0
M  END
