
     RDKit          3D

 26 26  0  0  0  0  0  0  0  0999 V2000
    2.5824    2.5832   -0.4279 C   0  0  0  0  0  0  0  0  0  0  0  0
    2.1031    1.4369   -0.0706 O   0  0  0  0  0  0  0  0  0  0  0  0
    1.4925    0.3319    0.1756 C   0  0  0  0  0  0  0  0  0  0  0  0
    0.2739    0.0389   -0.4662 C   0  0  0  0  0  0  0  0  0  0  0  0
   -0.4224   -1.1271   -0.2410 C   0  0  0  0  0  0  0  0  0  0  0  0
   -1.7098   -1.4116   -0.9317 C   0  0  0  0  0  0  0  0  0  0  0  0
   -2.9033   -0.9024   -0.1385 C   0  0  0  0  0  0  0  0  0  0  0  0
   -2.7097    0.5584    0.0078 C   0  0  0  0  0  0  0  0  0  0  0  0
   -2.3038    1.0969    1.2324 O   0  0  0  0  0  0  0  0  0  0  0  0
   -2.9031    1.3396   -0.9577 O   0  0  0  0  0  0  0  0  0  0  0  0
    0.0641   -2.0613    0.6382 C   0  0  0  0  0  0  0  0  0  0  0  0
    1.2516   -1.8296    1.2949 C   0  0  0  0  0  0  0  0  0  0  0  0
    1.9393   -0.6661    1.0659 C   0  0  0  0  0  0  0  0  0  0  0  0
    3.1363   -0.3959    1.7060 O   0  0  0  0  0  0  0  0  0  0  0  0
    2.5072    3.3458    0.4232 H   0  0  0  0  0  0  0  0  0  0  0  0
    2.0465    3.1519   -1.2579 H   0  0  0  0  0  0  0  0  0  0  0  0
    3.6702    2.6492   -0.7370 H   0  0  0  0  0  0  0  0  0  0  0  0
   -0.1287    0.7617   -1.1635 H   0  0  0  0  0  0  0  0  0  0  0  0
   -1.7422   -0.9507   -1.9309 H   0  0  0  0  0  0  0  0  0  0  0  0
   -1.8763   -2.4967   -1.0803 H   0  0  0  0  0  0  0  0  0  0  0  0
   -3.7988   -1.0355   -0.7810 H   0  0  0  0  0  0  0  0  0  0  0  0
   -3.0498   -1.4257    0.8246 H   0  0  0  0  0  0  0  0  0  0  0  0
   -2.2904    2.1061    1.3669 H   0  0  0  0  0  0  0  0  0  0  0  0
   -0.4970   -2.9617    0.7981 H   0  0  0  0  0  0  0  0  0  0  0  0
    1.6068   -2.5805    1.9790 H   0  0  0  0  0  0  0  0  0  0  0  0
    3.6615    0.4445    1.5569 H   0  0  0  0  0  0  0  0  0  0  0  0
  1  2  1  0
  2  3  1  0
  3  4  2  0
  4  5  1  0
  5  6  1  0
  6  7  1  0
  7  8  1  0
  8  9  1  0
  8 10  2  0
  5 11  2  0
 11 12  1  0
 12 13  2  0
 13 14  1  0
 13  3  1  0
  1 15  1  0
  1 16  1  0
  1 17  1  0
  4 18  1  0
  6 19  1  0
  6 20  1  0
  7 21  1  0
  7 22  1  0
  9 23  1  0
 11 24  1  0
 12 25  1  0
 14 26  1  0
M  END
