
     RDKit          3D

 18 18  0  0  0  0  0  0  0  0999 V2000
   -3.1393    0.9787   -0.4562 O   0  0  0  0  0  0  0  0  0  0  0  0
   -2.4328    0.2698    0.4830 C   0  0  0  0  0  0  0  0  0  0  0  0
   -2.6482    0.5227    1.6837 O   0  0  0  0  0  0  0  0  0  0  0  0
   -1.4399   -0.7738    0.1187 C   0  0  0  0  0  0  0  0  0  0  0  0
   -0.0378   -0.3358    0.2625 C   0  0  0  0  0  0  0  0  0  0  0  0
    0.3621    0.9607    0.1019 C   0  0  0  0  0  0  0  0  0  0  0  0
    1.6939    1.3046    0.1580 C   0  0  0  0  0  0  0  0  0  0  0  0
    2.6618    0.3405    0.3809 C   0  0  0  0  0  0  0  0  0  0  0  0
    2.2489   -0.9540    0.5425 C   0  0  0  0  0  0  0  0  0  0  0  0
    0.9263   -1.3000    0.4844 C   0  0  0  0  0  0  0  0  0  0  0  0
   -4.0990    1.2437   -0.4444 H   0  0  0  0  0  0  0  0  0  0  0  0
   -1.5393   -1.1792   -0.8992 H   0  0  0  0  0  0  0  0  0  0  0  0
   -1.5480   -1.6750    0.7973 H   0  0  0  0  0  0  0  0  0  0  0  0
   -0.4177    1.7403   -0.0725 H   0  0  0  0  0  0  0  0  0  0  0  0
    2.0162    2.3122    0.0410 H   0  0  0  0  0  0  0  0  0  0  0  0
    3.7255    0.6042    0.4261 H   0  0  0  0  0  0  0  0  0  0  0  0
    2.9895   -1.7170    0.7154 H   0  0  0  0  0  0  0  0  0  0  0  0
    0.6780   -2.3427    0.6162 H   0  0  0  0  0  0  0  0  0  0  0  0
  1  2  1  0
  2  3  2  0
  2  4  1  0
  4  5  1  0
  5  6  2  0
  6  7  1  0
  7  8  2  0
  8  9  1  0
  9 10  2  0
 10  5  1  0
  1 11  1  0
  4 12  1  0
  4 13  1  0
  6 14  1  0
  7 15  1  0
  8 16  1  0
  9 17  1  0
 10 18  1  0
M  END
