
     RDKit          3D

 31 31  0  0  0  0  0  0  0  0999 V2000
   -2.3759   -3.5022    0.4962 C   0  0  0  0  0  0  0  0  0  0  0  0
   -2.7126   -2.1597    0.3468 O   0  0  0  0  0  0  0  0  0  0  0  0
   -1.8239   -1.1582    0.0163 C   0  0  0  0  0  0  0  0  0  0  0  0
   -0.4855   -1.4483   -0.1943 C   0  0  0  0  0  0  0  0  0  0  0  0
    0.4414   -0.4634   -0.5295 C   0  0  0  0  0  0  0  0  0  0  0  0
    1.8521   -0.8101   -0.7462 C   0  0  0  0  0  0  0  0  0  0  0  0
    2.6707   -0.7396    0.5172 C   0  0  0  0  0  0  0  0  0  0  0  0
    2.6598    0.6485    1.1195 C   0  0  0  0  0  0  0  0  0  0  0  0
    3.1905    1.5521    0.2090 O   0  0  0  0  0  0  0  0  0  0  0  0
   -0.0058    0.8334   -0.6506 C   0  0  0  0  0  0  0  0  0  0  0  0
   -1.3407    1.1637   -0.4470 C   0  0  0  0  0  0  0  0  0  0  0  0
   -1.8457    2.4450   -0.5545 O   0  0  0  0  0  0  0  0  0  0  0  0
   -1.0640    3.5715   -0.8842 C   0  0  0  0  0  0  0  0  0  0  0  0
   -2.2183    0.1589   -0.1181 C   0  0  0  0  0  0  0  0  0  0  0  0
   -3.5503    0.4817    0.0861 O   0  0  0  0  0  0  0  0  0  0  0  0
   -1.6294   -3.7993   -0.2949 H   0  0  0  0  0  0  0  0  0  0  0  0
   -3.2268   -4.1917    0.3578 H   0  0  0  0  0  0  0  0  0  0  0  0
   -1.8727   -3.6273    1.4820 H   0  0  0  0  0  0  0  0  0  0  0  0
   -0.1103   -2.4539   -0.1058 H   0  0  0  0  0  0  0  0  0  0  0  0
    2.2866   -0.0617   -1.4534 H   0  0  0  0  0  0  0  0  0  0  0  0
    1.9632   -1.8227   -1.1672 H   0  0  0  0  0  0  0  0  0  0  0  0
    2.2820   -1.4758    1.2629 H   0  0  0  0  0  0  0  0  0  0  0  0
    3.7323   -0.9891    0.3202 H   0  0  0  0  0  0  0  0  0  0  0  0
    3.1840    0.6553    2.0750 H   0  0  0  0  0  0  0  0  0  0  0  0
    1.6050    0.9683    1.3372 H   0  0  0  0  0  0  0  0  0  0  0  0
    4.1778    1.5789    0.3076 H   0  0  0  0  0  0  0  0  0  0  0  0
    0.6860    1.6271   -0.9108 H   0  0  0  0  0  0  0  0  0  0  0  0
   -1.7021    4.3927   -1.2518 H   0  0  0  0  0  0  0  0  0  0  0  0
   -0.4190    3.2825   -1.7647 H   0  0  0  0  0  0  0  0  0  0  0  0
   -0.4545    3.9349   -0.0482 H   0  0  0  0  0  0  0  0  0  0  0  0
   -3.8939    1.4084    0.0042 H   0  0  0  0  0  0  0  0  0  0  0  0
  1  2  1  0
  2  3  1  0
  3  4  2  0
  4  5  1  0
  5  6  1  0
  6  7  1  0
  7  8  1  0
  8  9  1  0
  5 10  2  0
 10 11  1  0
 11 12  1  0
 12 13  1  0
 11 14  2  0
 14 15  1  0
 14  3  1  0
  1 16  1  0
  1 17  1  0
  1 18  1  0
  4 19  1  0
  6 20  1  0
  6 21  1  0
  7 22  1  0
  7 23  1  0
  8 24  1  0
  8 25  1  0
  9 26  1  0
 10 27  1  0
 13 28  1  0
 13 29  1  0
 13 30  1  0
 15 31  1  0
M  END
