
     RDKit          3D

 18 18  0  0  0  0  0  0  0  0999 V2000
    3.5835    0.7411   -0.6154 O   0  0  0  0  0  0  0  0  0  0  0  0
    2.2310    0.6291   -0.4322 C   0  0  0  0  0  0  0  0  0  0  0  0
    1.5459    1.6986   -0.5785 O   0  0  0  0  0  0  0  0  0  0  0  0
    1.5504   -0.6377   -0.0831 C   0  0  0  0  0  0  0  0  0  0  0  0
    0.0870   -0.3987    0.0386 C   0  0  0  0  0  0  0  0  0  0  0  0
   -0.4965   -0.0403    1.2349 C   0  0  0  0  0  0  0  0  0  0  0  0
   -1.8496    0.1871    1.3755 C   0  0  0  0  0  0  0  0  0  0  0  0
   -2.6892    0.0597    0.2922 C   0  0  0  0  0  0  0  0  0  0  0  0
   -2.1131   -0.2987   -0.9085 C   0  0  0  0  0  0  0  0  0  0  0  0
   -0.7599   -0.5258   -1.0480 C   0  0  0  0  0  0  0  0  0  0  0  0
    4.0965    1.5329   -0.2721 H   0  0  0  0  0  0  0  0  0  0  0  0
    1.7768   -1.4099   -0.8611 H   0  0  0  0  0  0  0  0  0  0  0  0
    1.9431   -1.0713    0.8761 H   0  0  0  0  0  0  0  0  0  0  0  0
    0.1675    0.0639    2.1066 H   0  0  0  0  0  0  0  0  0  0  0  0
   -2.2743    0.4669    2.3288 H   0  0  0  0  0  0  0  0  0  0  0  0
   -3.7556    0.2246    0.3410 H   0  0  0  0  0  0  0  0  0  0  0  0
   -2.7334   -0.4104   -1.7854 H   0  0  0  0  0  0  0  0  0  0  0  0
   -0.3100   -0.8112   -2.0093 H   0  0  0  0  0  0  0  0  0  0  0  0
  1  2  1  0
  2  3  2  0
  2  4  1  0
  4  5  1  0
  5  6  2  0
  6  7  1  0
  7  8  2  0
  8  9  1  0
  9 10  2  0
 10  5  1  0
  1 11  1  0
  4 12  1  0
  4 13  1  0
  6 14  1  0
  7 15  1  0
  8 16  1  0
  9 17  1  0
 10 18  1  0
M  END
