
     RDKit          3D

 27 27  0  0  0  0  0  0  0  0999 V2000
    3.5539   -0.4140    1.0826 C   0  0  0  0  0  0  0  0  0  0  0  0
    3.1034    0.7509    0.4161 O   0  0  0  0  0  0  0  0  0  0  0  0
    1.8342    0.7383   -0.1626 C   0  0  0  0  0  0  0  0  0  0  0  0
    1.0310   -0.3805   -0.0909 C   0  0  0  0  0  0  0  0  0  0  0  0
   -0.2226   -0.3848   -0.6658 C   0  0  0  0  0  0  0  0  0  0  0  0
   -1.1301   -1.5438   -0.6263 C   0  0  0  0  0  0  0  0  0  0  0  0
   -2.0377   -1.5572    0.5580 C   0  0  0  0  0  0  0  0  0  0  0  0
   -2.9381   -0.3512    0.6334 C   0  0  0  0  0  0  0  0  0  0  0  0
   -3.7702   -0.2252   -0.4719 O   0  0  0  0  0  0  0  0  0  0  0  0
   -0.6289    0.7662   -1.3066 C   0  0  0  0  0  0  0  0  0  0  0  0
    0.1874    1.8922   -1.3751 C   0  0  0  0  0  0  0  0  0  0  0  0
    1.4410    1.8966   -0.8002 C   0  0  0  0  0  0  0  0  0  0  0  0
    2.2660    3.0205   -0.8639 O   0  0  0  0  0  0  0  0  0  0  0  0
    3.5184   -1.2458    0.3285 H   0  0  0  0  0  0  0  0  0  0  0  0
    2.9324   -0.6326    1.9732 H   0  0  0  0  0  0  0  0  0  0  0  0
    4.5937   -0.3427    1.4086 H   0  0  0  0  0  0  0  0  0  0  0  0
    1.3655   -1.2920    0.4223 H   0  0  0  0  0  0  0  0  0  0  0  0
   -0.5343   -2.4798   -0.6057 H   0  0  0  0  0  0  0  0  0  0  0  0
   -1.7660   -1.6177   -1.5432 H   0  0  0  0  0  0  0  0  0  0  0  0
   -2.6929   -2.4461    0.4762 H   0  0  0  0  0  0  0  0  0  0  0  0
   -1.5110   -1.6405    1.5219 H   0  0  0  0  0  0  0  0  0  0  0  0
   -2.3554    0.5899    0.8217 H   0  0  0  0  0  0  0  0  0  0  0  0
   -3.5991   -0.4659    1.5170 H   0  0  0  0  0  0  0  0  0  0  0  0
   -4.0653    0.7354   -0.4960 H   0  0  0  0  0  0  0  0  0  0  0  0
   -1.5868    0.8263   -1.7709 H   0  0  0  0  0  0  0  0  0  0  0  0
   -0.1553    2.7845   -1.8845 H   0  0  0  0  0  0  0  0  0  0  0  0
    3.1668    3.0192   -0.4491 H   0  0  0  0  0  0  0  0  0  0  0  0
  1  2  1  0
  2  3  1  0
  3  4  2  0
  4  5  1  0
  5  6  1  0
  6  7  1  0
  7  8  1  0
  8  9  1  0
  5 10  2  0
 10 11  1  0
 11 12  2  0
 12 13  1  0
 12  3  1  0
  1 14  1  0
  1 15  1  0
  1 16  1  0
  4 17  1  0
  6 18  1  0
  6 19  1  0
  7 20  1  0
  7 21  1  0
  8 22  1  0
  8 23  1  0
  9 24  1  0
 10 25  1  0
 11 26  1  0
 13 27  1  0
M  END
