
     RDKit          3D

 25 25  0  0  0  0  0  0  0  0999 V2000
    3.1348    2.0567   -0.2413 C   0  0  0  0  0  0  0  0  0  0  0  0
    3.2907    0.6459   -0.3446 O   0  0  0  0  0  0  0  0  0  0  0  0
    2.2306   -0.2210   -0.1425 C   0  0  0  0  0  0  0  0  0  0  0  0
    2.4823   -1.5707   -0.2662 C   0  0  0  0  0  0  0  0  0  0  0  0
    1.4326   -2.4489   -0.0667 C   0  0  0  0  0  0  0  0  0  0  0  0
    0.1634   -2.0057    0.2476 C   0  0  0  0  0  0  0  0  0  0  0  0
   -0.0941   -0.6570    0.3725 C   0  0  0  0  0  0  0  0  0  0  0  0
   -1.4610   -0.1914    0.7119 C   0  0  0  0  0  0  0  0  0  0  0  0
   -2.2787    0.0471   -0.5564 C   0  0  0  0  0  0  0  0  0  0  0  0
   -3.6220    0.5067   -0.1519 C   0  0  0  0  0  0  0  0  0  0  0  0
   -4.0705    1.8184   -0.2648 O   0  0  0  0  0  0  0  0  0  0  0  0
   -4.4273   -0.3231    0.3267 O   0  0  0  0  0  0  0  0  0  0  0  0
    0.9432    0.2022    0.1750 C   0  0  0  0  0  0  0  0  0  0  0  0
    2.3134    2.3146   -0.9622 H   0  0  0  0  0  0  0  0  0  0  0  0
    4.0504    2.5842   -0.5373 H   0  0  0  0  0  0  0  0  0  0  0  0
    2.8082    2.2612    0.7979 H   0  0  0  0  0  0  0  0  0  0  0  0
    3.4720   -1.9369   -0.5115 H   0  0  0  0  0  0  0  0  0  0  0  0
    1.5992   -3.5036   -0.1545 H   0  0  0  0  0  0  0  0  0  0  0  0
   -0.6377   -2.7254    0.3977 H   0  0  0  0  0  0  0  0  0  0  0  0
   -1.4516    0.7143    1.3509 H   0  0  0  0  0  0  0  0  0  0  0  0
   -2.0017   -0.9828    1.2862 H   0  0  0  0  0  0  0  0  0  0  0  0
   -1.7586    0.7934   -1.2124 H   0  0  0  0  0  0  0  0  0  0  0  0
   -2.3330   -0.8938   -1.1370 H   0  0  0  0  0  0  0  0  0  0  0  0
   -4.5609    2.2431    0.5394 H   0  0  0  0  0  0  0  0  0  0  0  0
    0.7761    1.2727    0.2656 H   0  0  0  0  0  0  0  0  0  0  0  0
  1  2  1  0
  2  3  1  0
  3  4  2  0
  4  5  1  0
  5  6  2  0
  6  7  1  0
  7  8  1  0
  8  9  1  0
  9 10  1  0
 10 11  1  0
 10 12  2  0
  7 13  2  0
 13  3  1  0
  1 14  1  0
  1 15  1  0
  1 16  1  0
  4 17  1  0
  5 18  1  0
  6 19  1  0
  8 20  1  0
  8 21  1  0
  9 22  1  0
  9 23  1  0
 11 24  1  0
 13 25  1  0
M  END
