
     RDKit          3D

 25 25  0  0  0  0  0  0  0  0999 V2000
    4.3417   -0.5319   -0.1234 C   0  0  0  0  0  0  0  0  0  0  0  0
    3.0116   -0.8590   -0.5119 O   0  0  0  0  0  0  0  0  0  0  0  0
    1.9537   -0.0632   -0.1075 C   0  0  0  0  0  0  0  0  0  0  0  0
    2.1961    1.0455    0.6720 C   0  0  0  0  0  0  0  0  0  0  0  0
    1.1015    1.8193    1.0569 C   0  0  0  0  0  0  0  0  0  0  0  0
   -0.1821    1.4956    0.6764 C   0  0  0  0  0  0  0  0  0  0  0  0
   -0.4277    0.3885   -0.1026 C   0  0  0  0  0  0  0  0  0  0  0  0
   -1.7570   -0.0022   -0.5341 C   0  0  0  0  0  0  0  0  0  0  0  0
   -2.4879   -0.9277    0.3850 C   0  0  0  0  0  0  0  0  0  0  0  0
   -3.8253   -1.2452   -0.1698 C   0  0  0  0  0  0  0  0  0  0  0  0
   -4.9304   -0.5746    0.3425 O   0  0  0  0  0  0  0  0  0  0  0  0
   -4.0286   -2.0859   -1.0789 O   0  0  0  0  0  0  0  0  0  0  0  0
    0.6708   -0.3884   -0.4890 C   0  0  0  0  0  0  0  0  0  0  0  0
    4.4983   -0.7081    0.9570 H   0  0  0  0  0  0  0  0  0  0  0  0
    4.5151    0.5632   -0.3308 H   0  0  0  0  0  0  0  0  0  0  0  0
    5.0821   -1.1468   -0.6733 H   0  0  0  0  0  0  0  0  0  0  0  0
    3.1802    1.3500    1.0015 H   0  0  0  0  0  0  0  0  0  0  0  0
    1.2617    2.6952    1.6689 H   0  0  0  0  0  0  0  0  0  0  0  0
   -1.0424    2.0802    0.9628 H   0  0  0  0  0  0  0  0  0  0  0  0
   -1.6843   -0.4842   -1.5316 H   0  0  0  0  0  0  0  0  0  0  0  0
   -2.4113    0.9006   -0.6870 H   0  0  0  0  0  0  0  0  0  0  0  0
   -1.9386   -1.9126    0.4409 H   0  0  0  0  0  0  0  0  0  0  0  0
   -2.6088   -0.5768    1.4026 H   0  0  0  0  0  0  0  0  0  0  0  0
   -5.0273    0.4409    0.2784 H   0  0  0  0  0  0  0  0  0  0  0  0
    0.5389   -1.2724   -1.1028 H   0  0  0  0  0  0  0  0  0  0  0  0
  1  2  1  0
  2  3  1  0
  3  4  2  0
  4  5  1  0
  5  6  2  0
  6  7  1  0
  7  8  1  0
  8  9  1  0
  9 10  1  0
 10 11  1  0
 10 12  2  0
  7 13  2  0
 13  3  1  0
  1 14  1  0
  1 15  1  0
  1 16  1  0
  4 17  1  0
  5 18  1  0
  6 19  1  0
  8 20  1  0
  8 21  1  0
  9 22  1  0
  9 23  1  0
 11 24  1  0
 13 25  1  0
M  END
