
     RDKit          3D

 25 25  0  0  0  0  0  0  0  0999 V2000
    4.3381   -0.7972    0.3706 C   0  0  0  0  0  0  0  0  0  0  0  0
    3.1087   -0.3609    0.8868 O   0  0  0  0  0  0  0  0  0  0  0  0
    1.9992   -0.1746    0.0503 C   0  0  0  0  0  0  0  0  0  0  0  0
    2.1499   -0.4335   -1.3031 C   0  0  0  0  0  0  0  0  0  0  0  0
    1.0557   -0.2491   -2.1241 C   0  0  0  0  0  0  0  0  0  0  0  0
   -0.1525    0.1814   -1.6060 C   0  0  0  0  0  0  0  0  0  0  0  0
   -0.3159    0.4429   -0.2594 C   0  0  0  0  0  0  0  0  0  0  0  0
   -1.6222    0.9019    0.2603 C   0  0  0  0  0  0  0  0  0  0  0  0
   -2.5100   -0.2494    0.6729 C   0  0  0  0  0  0  0  0  0  0  0  0
   -3.7879    0.3198    1.1764 C   0  0  0  0  0  0  0  0  0  0  0  0
   -4.7944   -0.5426    1.6261 O   0  0  0  0  0  0  0  0  0  0  0  0
   -3.9971    1.5603    1.2122 O   0  0  0  0  0  0  0  0  0  0  0  0
    0.7863    0.2540    0.5476 C   0  0  0  0  0  0  0  0  0  0  0  0
    4.8306   -0.0512   -0.2871 H   0  0  0  0  0  0  0  0  0  0  0  0
    4.9920   -1.0950    1.2184 H   0  0  0  0  0  0  0  0  0  0  0  0
    4.1459   -1.7106   -0.2507 H   0  0  0  0  0  0  0  0  0  0  0  0
    3.0874   -0.7710   -1.7268 H   0  0  0  0  0  0  0  0  0  0  0  0
    1.1449   -0.4437   -3.1847 H   0  0  0  0  0  0  0  0  0  0  0  0
   -0.9874    0.3164   -2.2681 H   0  0  0  0  0  0  0  0  0  0  0  0
   -1.5206    1.6168    1.0877 H   0  0  0  0  0  0  0  0  0  0  0  0
   -2.1110    1.4638   -0.5863 H   0  0  0  0  0  0  0  0  0  0  0  0
   -2.7469   -0.9065   -0.1675 H   0  0  0  0  0  0  0  0  0  0  0  0
   -2.0169   -0.7605    1.5212 H   0  0  0  0  0  0  0  0  0  0  0  0
   -5.7533   -0.1880    1.5292 H   0  0  0  0  0  0  0  0  0  0  0  0
    0.6775    0.4536    1.6042 H   0  0  0  0  0  0  0  0  0  0  0  0
  1  2  1  0
  2  3  1  0
  3  4  2  0
  4  5  1  0
  5  6  2  0
  6  7  1  0
  7  8  1  0
  8  9  1  0
  9 10  1  0
 10 11  1  0
 10 12  2  0
  7 13  2  0
 13  3  1  0
  1 14  1  0
  1 15  1  0
  1 16  1  0
  4 17  1  0
  5 18  1  0
  6 19  1  0
  8 20  1  0
  8 21  1  0
  9 22  1  0
  9 23  1  0
 11 24  1  0
 13 25  1  0
M  END
