
     RDKit          3D

 26 26  0  0  0  0  0  0  0  0999 V2000
   -3.0717    0.7359   -1.8271 C   0  0  0  0  0  0  0  0  0  0  0  0
   -3.1373    0.3398   -0.4675 O   0  0  0  0  0  0  0  0  0  0  0  0
   -1.9924    0.1769    0.2935 C   0  0  0  0  0  0  0  0  0  0  0  0
   -0.7363    0.3907   -0.2296 C   0  0  0  0  0  0  0  0  0  0  0  0
    0.3863    0.2207    0.5522 C   0  0  0  0  0  0  0  0  0  0  0  0
    1.7609    0.4473    0.0052 C   0  0  0  0  0  0  0  0  0  0  0  0
    2.2733   -0.8519   -0.5679 C   0  0  0  0  0  0  0  0  0  0  0  0
    3.6173   -0.7396   -1.1318 C   0  0  0  0  0  0  0  0  0  0  0  0
    4.3430    0.4271   -1.1408 O   0  0  0  0  0  0  0  0  0  0  0  0
    4.1459   -1.7619   -1.6383 O   0  0  0  0  0  0  0  0  0  0  0  0
    0.2175   -0.1656    1.8599 C   0  0  0  0  0  0  0  0  0  0  0  0
   -1.0232   -0.3879    2.4150 C   0  0  0  0  0  0  0  0  0  0  0  0
   -2.1485   -0.2107    1.6078 C   0  0  0  0  0  0  0  0  0  0  0  0
   -3.4099   -0.4280    2.1423 O   0  0  0  0  0  0  0  0  0  0  0  0
   -4.0556    0.5042   -2.3238 H   0  0  0  0  0  0  0  0  0  0  0  0
   -2.2701    0.1204   -2.3188 H   0  0  0  0  0  0  0  0  0  0  0  0
   -2.8925    1.8117   -1.9166 H   0  0  0  0  0  0  0  0  0  0  0  0
   -0.6188    0.6970   -1.2692 H   0  0  0  0  0  0  0  0  0  0  0  0
    2.4316    0.7282    0.8431 H   0  0  0  0  0  0  0  0  0  0  0  0
    1.7282    1.2581   -0.7184 H   0  0  0  0  0  0  0  0  0  0  0  0
    2.2472   -1.6451    0.2051 H   0  0  0  0  0  0  0  0  0  0  0  0
    1.5560   -1.1489   -1.3820 H   0  0  0  0  0  0  0  0  0  0  0  0
    4.8983    0.7596   -0.3663 H   0  0  0  0  0  0  0  0  0  0  0  0
    1.1205   -0.2948    2.4625 H   0  0  0  0  0  0  0  0  0  0  0  0
   -1.1544   -0.6879    3.4309 H   0  0  0  0  0  0  0  0  0  0  0  0
   -4.2153   -0.2954    1.5446 H   0  0  0  0  0  0  0  0  0  0  0  0
  1  2  1  0
  2  3  1  0
  3  4  2  0
  4  5  1  0
  5  6  1  0
  6  7  1  0
  7  8  1  0
  8  9  1  0
  8 10  2  0
  5 11  2  0
 11 12  1  0
 12 13  2  0
 13 14  1  0
 13  3  1  0
  1 15  1  0
  1 16  1  0
  1 17  1  0
  4 18  1  0
  6 19  1  0
  6 20  1  0
  7 21  1  0
  7 22  1  0
  9 23  1  0
 11 24  1  0
 12 25  1  0
 14 26  1  0
M  END
