
     RDKit          3D

 25 25  0  0  0  0  0  0  0  0999 V2000
    3.6232    1.3674    1.1804 C   0  0  0  0  0  0  0  0  0  0  0  0
    2.2770    1.3580    0.8476 O   0  0  0  0  0  0  0  0  0  0  0  0
    1.5979    0.4480    0.0766 C   0  0  0  0  0  0  0  0  0  0  0  0
    2.2495   -0.6567   -0.4981 C   0  0  0  0  0  0  0  0  0  0  0  0
    1.4720   -1.4991   -1.2501 C   0  0  0  0  0  0  0  0  0  0  0  0
    0.1146   -1.3005   -1.4505 C   0  0  0  0  0  0  0  0  0  0  0  0
   -0.5388   -0.2186   -0.8919 C   0  0  0  0  0  0  0  0  0  0  0  0
   -1.9640   -0.0459   -1.1450 C   0  0  0  0  0  0  0  0  0  0  0  0
   -2.9129   -0.6961   -0.1997 C   0  0  0  0  0  0  0  0  0  0  0  0
   -2.7044   -0.1449    1.1865 C   0  0  0  0  0  0  0  0  0  0  0  0
   -3.1609    1.1452    1.4924 O   0  0  0  0  0  0  0  0  0  0  0  0
   -2.1396   -0.7975    2.0679 O   0  0  0  0  0  0  0  0  0  0  0  0
    0.2396    0.6291   -0.1357 C   0  0  0  0  0  0  0  0  0  0  0  0
    4.2131    2.1426    0.6413 H   0  0  0  0  0  0  0  0  0  0  0  0
    3.6707    1.6510    2.2725 H   0  0  0  0  0  0  0  0  0  0  0  0
    4.0830    0.3822    1.0839 H   0  0  0  0  0  0  0  0  0  0  0  0
    3.3027   -0.8018   -0.3387 H   0  0  0  0  0  0  0  0  0  0  0  0
    1.9868   -2.3632   -1.6924 H   0  0  0  0  0  0  0  0  0  0  0  0
   -0.4516   -2.0216   -2.0613 H   0  0  0  0  0  0  0  0  0  0  0  0
   -2.1761   -0.2520   -2.2088 H   0  0  0  0  0  0  0  0  0  0  0  0
   -2.1625    1.0759   -1.0560 H   0  0  0  0  0  0  0  0  0  0  0  0
   -2.8044   -1.7987   -0.1387 H   0  0  0  0  0  0  0  0  0  0  0  0
   -3.9608   -0.4888   -0.4696 H   0  0  0  0  0  0  0  0  0  0  0  0
   -3.5668    1.4013    2.3877 H   0  0  0  0  0  0  0  0  0  0  0  0
   -0.2871    1.4846    0.2997 H   0  0  0  0  0  0  0  0  0  0  0  0
  1  2  1  0
  2  3  1  0
  3  4  2  0
  4  5  1  0
  5  6  2  0
  6  7  1  0
  7  8  1  0
  8  9  1  0
  9 10  1  0
 10 11  1  0
 10 12  2  0
  7 13  2  0
 13  3  1  0
  1 14  1  0
  1 15  1  0
  1 16  1  0
  4 17  1  0
  5 18  1  0
  6 19  1  0
  8 20  1  0
  8 21  1  0
  9 22  1  0
  9 23  1  0
 11 24  1  0
 13 25  1  0
M  END
