
     RDKit          3D

 31 31  0  0  0  0  0  0  0  0999 V2000
   -1.8420   -3.5787    0.4781 C   0  0  0  0  0  0  0  0  0  0  0  0
   -2.5030   -2.3223    0.3420 O   0  0  0  0  0  0  0  0  0  0  0  0
   -1.8076   -1.1461    0.1106 C   0  0  0  0  0  0  0  0  0  0  0  0
   -0.4190   -1.1272   -0.0021 C   0  0  0  0  0  0  0  0  0  0  0  0
    0.2667    0.0492   -0.2328 C   0  0  0  0  0  0  0  0  0  0  0  0
    1.7284   -0.0073   -0.3400 C   0  0  0  0  0  0  0  0  0  0  0  0
    2.4490    0.1711    0.9632 C   0  0  0  0  0  0  0  0  0  0  0  0
    3.9460    0.0796    0.6327 C   0  0  0  0  0  0  0  0  0  0  0  0
    4.1785   -1.1739    0.0747 O   0  0  0  0  0  0  0  0  0  0  0  0
   -0.4883    1.1949   -0.3449 C   0  0  0  0  0  0  0  0  0  0  0  0
   -1.8723    1.1847   -0.2339 C   0  0  0  0  0  0  0  0  0  0  0  0
   -2.6168    2.3410   -0.3484 O   0  0  0  0  0  0  0  0  0  0  0  0
   -2.0102    3.6039   -0.5858 C   0  0  0  0  0  0  0  0  0  0  0  0
   -2.5508    0.0080   -0.0037 C   0  0  0  0  0  0  0  0  0  0  0  0
   -3.9451    0.0023    0.1075 O   0  0  0  0  0  0  0  0  0  0  0  0
   -2.5648   -4.3971    0.3665 H   0  0  0  0  0  0  0  0  0  0  0  0
   -1.0761   -3.6868   -0.3231 H   0  0  0  0  0  0  0  0  0  0  0  0
   -1.3605   -3.6684    1.4621 H   0  0  0  0  0  0  0  0  0  0  0  0
    0.0948   -2.0706    0.0988 H   0  0  0  0  0  0  0  0  0  0  0  0
    2.0301   -0.9690   -0.7719 H   0  0  0  0  0  0  0  0  0  0  0  0
    2.0403    0.8397   -1.0117 H   0  0  0  0  0  0  0  0  0  0  0  0
    2.1915   -0.6420    1.6597 H   0  0  0  0  0  0  0  0  0  0  0  0
    2.2860    1.1278    1.4539 H   0  0  0  0  0  0  0  0  0  0  0  0
    4.5663    0.2824    1.5150 H   0  0  0  0  0  0  0  0  0  0  0  0
    4.2053    0.8423   -0.1300 H   0  0  0  0  0  0  0  0  0  0  0  0
    4.9737   -1.6030    0.4679 H   0  0  0  0  0  0  0  0  0  0  0  0
    0.0415    2.1125   -0.5244 H   0  0  0  0  0  0  0  0  0  0  0  0
   -1.4788    3.9500    0.3167 H   0  0  0  0  0  0  0  0  0  0  0  0
   -1.2509    3.4361   -1.3838 H   0  0  0  0  0  0  0  0  0  0  0  0
   -2.7198    4.3380   -0.9746 H   0  0  0  0  0  0  0  0  0  0  0  0
   -4.4918    0.8289    0.0267 H   0  0  0  0  0  0  0  0  0  0  0  0
  1  2  1  0
  2  3  1  0
  3  4  2  0
  4  5  1  0
  5  6  1  0
  6  7  1  0
  7  8  1  0
  8  9  1  0
  5 10  2  0
 10 11  1  0
 11 12  1  0
 12 13  1  0
 11 14  2  0
 14 15  1  0
 14  3  1  0
  1 16  1  0
  1 17  1  0
  1 18  1  0
  4 19  1  0
  6 20  1  0
  6 21  1  0
  7 22  1  0
  7 23  1  0
  8 24  1  0
  8 25  1  0
  9 26  1  0
 10 27  1  0
 13 28  1  0
 13 29  1  0
 13 30  1  0
 15 31  1  0
M  END
