
     RDKit          3D

 24 25  0  0  0  0  0  0  0  0999 V2000
   -4.0008    0.6113    1.1569 O   0  0  0  0  0  0  0  0  0  0  0  0
   -2.8215   -0.0568    0.7944 C   0  0  0  0  0  0  0  0  0  0  0  0
   -1.9845   -0.2387    1.6805 O   0  0  0  0  0  0  0  0  0  0  0  0
   -2.6904   -0.4755   -0.5927 C   0  0  0  0  0  0  0  0  0  0  0  0
   -1.4181   -1.1656   -0.8942 C   0  0  0  0  0  0  0  0  0  0  0  0
   -0.1749   -0.4255   -0.6689 C   0  0  0  0  0  0  0  0  0  0  0  0
    0.2936    0.5001   -1.5892 C   0  0  0  0  0  0  0  0  0  0  0  0
    1.4811    1.1712   -1.3960 C   0  0  0  0  0  0  0  0  0  0  0  0
    2.2314    0.9217   -0.2582 C   0  0  0  0  0  0  0  0  0  0  0  0
    3.4430    1.4163    0.2267 O   0  0  0  0  0  0  0  0  0  0  0  0
    3.9005    0.5944    1.2762 C   0  0  0  0  0  0  0  0  0  0  0  0
    2.6953   -0.0630    1.6968 O   0  0  0  0  0  0  0  0  0  0  0  0
    1.7794    0.0067    0.6619 C   0  0  0  0  0  0  0  0  0  0  0  0
    0.5851   -0.6551    0.4466 C   0  0  0  0  0  0  0  0  0  0  0  0
   -4.8589    0.0941    1.0412 H   0  0  0  0  0  0  0  0  0  0  0  0
   -2.9050    0.3701   -1.3062 H   0  0  0  0  0  0  0  0  0  0  0  0
   -3.5605   -1.1892   -0.7775 H   0  0  0  0  0  0  0  0  0  0  0  0
   -1.3271   -2.1285   -0.3147 H   0  0  0  0  0  0  0  0  0  0  0  0
   -1.4205   -1.4118   -2.0040 H   0  0  0  0  0  0  0  0  0  0  0  0
   -0.3222    0.6662   -2.4649 H   0  0  0  0  0  0  0  0  0  0  0  0
    1.8422    1.8940   -2.1198 H   0  0  0  0  0  0  0  0  0  0  0  0
    4.3778    1.1409    2.0949 H   0  0  0  0  0  0  0  0  0  0  0  0
    4.5286   -0.1972    0.8280 H   0  0  0  0  0  0  0  0  0  0  0  0
    0.3263   -1.3800    1.2273 H   0  0  0  0  0  0  0  0  0  0  0  0
  1  2  1  0
  2  3  2  0
  2  4  1  0
  4  5  1  0
  5  6  1  0
  6  7  2  0
  7  8  1  0
  8  9  2  0
  9 10  1  0
 10 11  1  0
 11 12  1  0
 12 13  1  0
 13 14  2  0
 14  6  1  0
 13  9  1  0
  1 15  1  0
  4 16  1  0
  4 17  1  0
  5 18  1  0
  5 19  1  0
  7 20  1  0
  8 21  1  0
 11 22  1  0
 11 23  1  0
 14 24  1  0
M  END
