
     RDKit          3D

 21 21  0  0  0  0  0  0  0  0999 V2000
    4.1375    0.4946   -1.2920 O   0  0  0  0  0  0  0  0  0  0  0  0
    3.1244   -0.2158   -0.6687 C   0  0  0  0  0  0  0  0  0  0  0  0
    3.4291   -1.2825   -0.0806 O   0  0  0  0  0  0  0  0  0  0  0  0
    1.7246    0.2723   -0.6976 C   0  0  0  0  0  0  0  0  0  0  0  0
    0.8713   -0.7017    0.0547 C   0  0  0  0  0  0  0  0  0  0  0  0
   -0.5443   -0.3383    0.1043 C   0  0  0  0  0  0  0  0  0  0  0  0
   -1.4147   -0.7677   -0.8698 C   0  0  0  0  0  0  0  0  0  0  0  0
   -2.7533   -0.3825   -0.7587 C   0  0  0  0  0  0  0  0  0  0  0  0
   -3.2029    0.3959    0.2775 C   0  0  0  0  0  0  0  0  0  0  0  0
   -2.3237    0.8216    1.2489 C   0  0  0  0  0  0  0  0  0  0  0  0
   -1.0010    0.4419    1.1406 C   0  0  0  0  0  0  0  0  0  0  0  0
    4.4138    1.4057   -0.9163 H   0  0  0  0  0  0  0  0  0  0  0  0
    1.4033    0.2107   -1.7776 H   0  0  0  0  0  0  0  0  0  0  0  0
    1.6553    1.3053   -0.3177 H   0  0  0  0  0  0  0  0  0  0  0  0
    1.3315   -0.8503    1.0519 H   0  0  0  0  0  0  0  0  0  0  0  0
    0.9628   -1.6879   -0.4816 H   0  0  0  0  0  0  0  0  0  0  0  0
   -1.1177   -1.3814   -1.7074 H   0  0  0  0  0  0  0  0  0  0  0  0
   -3.4971   -0.6877   -1.4961 H   0  0  0  0  0  0  0  0  0  0  0  0
   -4.2385    0.7087    0.3862 H   0  0  0  0  0  0  0  0  0  0  0  0
   -2.6375    1.4431    2.0925 H   0  0  0  0  0  0  0  0  0  0  0  0
   -0.3230    0.7961    1.9297 H   0  0  0  0  0  0  0  0  0  0  0  0
  1  2  1  0
  2  3  2  0
  2  4  1  0
  4  5  1  0
  5  6  1  0
  6  7  2  0
  7  8  1  0
  8  9  2  0
  9 10  1  0
 10 11  2  0
 11  6  1  0
  1 12  1  0
  4 13  1  0
  4 14  1  0
  5 15  1  0
  5 16  1  0
  7 17  1  0
  8 18  1  0
  9 19  1  0
 10 20  1  0
 11 21  1  0
M  END
