
     RDKit          3D

 21 21  0  0  0  0  0  0  0  0999 V2000
    4.0881   -0.9481    1.1197 O   0  0  0  0  0  0  0  0  0  0  0  0
    3.1221   -0.3126    0.3493 C   0  0  0  0  0  0  0  0  0  0  0  0
    3.5674    0.4421   -0.5742 O   0  0  0  0  0  0  0  0  0  0  0  0
    1.6657   -0.5004    0.5862 C   0  0  0  0  0  0  0  0  0  0  0  0
    0.9189    0.3358   -0.4303 C   0  0  0  0  0  0  0  0  0  0  0  0
   -0.5367    0.2337   -0.2979 C   0  0  0  0  0  0  0  0  0  0  0  0
   -1.2065    1.1096    0.5199 C   0  0  0  0  0  0  0  0  0  0  0  0
   -2.5829    1.0533    0.6780 C   0  0  0  0  0  0  0  0  0  0  0  0
   -3.3016    0.1089    0.0103 C   0  0  0  0  0  0  0  0  0  0  0  0
   -2.6412   -0.7950   -0.8289 C   0  0  0  0  0  0  0  0  0  0  0  0
   -1.2495   -0.7187   -0.9730 C   0  0  0  0  0  0  0  0  0  0  0  0
    4.9511   -0.4660    1.3385 H   0  0  0  0  0  0  0  0  0  0  0  0
    1.3835   -1.5845    0.4444 H   0  0  0  0  0  0  0  0  0  0  0  0
    1.3806   -0.1467    1.6001 H   0  0  0  0  0  0  0  0  0  0  0  0
    1.2557    0.0596   -1.4572 H   0  0  0  0  0  0  0  0  0  0  0  0
    1.2956    1.3904   -0.2873 H   0  0  0  0  0  0  0  0  0  0  0  0
   -0.6809    1.8823    1.0755 H   0  0  0  0  0  0  0  0  0  0  0  0
   -3.0539    1.7628    1.3298 H   0  0  0  0  0  0  0  0  0  0  0  0
   -4.3696    0.0381    0.1109 H   0  0  0  0  0  0  0  0  0  0  0  0
   -3.2431   -1.5164   -1.3311 H   0  0  0  0  0  0  0  0  0  0  0  0
   -0.7629   -1.4282   -1.6271 H   0  0  0  0  0  0  0  0  0  0  0  0
  1  2  1  0
  2  3  2  0
  2  4  1  0
  4  5  1  0
  5  6  1  0
  6  7  2  0
  7  8  1  0
  8  9  2  0
  9 10  1  0
 10 11  2  0
 11  6  1  0
  1 12  1  0
  4 13  1  0
  4 14  1  0
  5 15  1  0
  5 16  1  0
  7 17  1  0
  8 18  1  0
  9 19  1  0
 10 20  1  0
 11 21  1  0
M  END
