
     RDKit          3D

 27 27  0  0  0  0  0  0  0  0999 V2000
    2.8248    0.7496    2.2642 C   0  0  0  0  0  0  0  0  0  0  0  0
    3.2053    0.1673    1.0342 O   0  0  0  0  0  0  0  0  0  0  0  0
    2.2151   -0.2979    0.1734 C   0  0  0  0  0  0  0  0  0  0  0  0
    0.8833   -0.1967    0.5063 C   0  0  0  0  0  0  0  0  0  0  0  0
   -0.1288   -0.6493   -0.3268 C   0  0  0  0  0  0  0  0  0  0  0  0
   -1.5467   -0.5337    0.0438 C   0  0  0  0  0  0  0  0  0  0  0  0
   -2.1462    0.7904   -0.4389 C   0  0  0  0  0  0  0  0  0  0  0  0
   -3.6102    0.7985   -0.0004 C   0  0  0  0  0  0  0  0  0  0  0  0
   -4.2473    1.9566   -0.3884 O   0  0  0  0  0  0  0  0  0  0  0  0
    0.2229   -1.2213   -1.5328 C   0  0  0  0  0  0  0  0  0  0  0  0
    1.5600   -1.3473   -1.9171 C   0  0  0  0  0  0  0  0  0  0  0  0
    2.5232   -0.8756   -1.0403 C   0  0  0  0  0  0  0  0  0  0  0  0
    3.8828   -0.9725   -1.3670 O   0  0  0  0  0  0  0  0  0  0  0  0
    3.7541    1.2192    2.6868 H   0  0  0  0  0  0  0  0  0  0  0  0
    2.1074    1.5843    2.0389 H   0  0  0  0  0  0  0  0  0  0  0  0
    2.3814   -0.0019    2.9196 H   0  0  0  0  0  0  0  0  0  0  0  0
    0.6360    0.2607    1.4674 H   0  0  0  0  0  0  0  0  0  0  0  0
   -1.6079   -0.5706    1.1499 H   0  0  0  0  0  0  0  0  0  0  0  0
   -2.1708   -1.3744   -0.3274 H   0  0  0  0  0  0  0  0  0  0  0  0
   -2.0727    0.8543   -1.5432 H   0  0  0  0  0  0  0  0  0  0  0  0
   -1.5918    1.6241    0.0386 H   0  0  0  0  0  0  0  0  0  0  0  0
   -4.0634   -0.1103   -0.4886 H   0  0  0  0  0  0  0  0  0  0  0  0
   -3.6209    0.6988    1.1087 H   0  0  0  0  0  0  0  0  0  0  0  0
   -4.8747    2.2074    0.3354 H   0  0  0  0  0  0  0  0  0  0  0  0
   -0.5482   -1.5823   -2.2006 H   0  0  0  0  0  0  0  0  0  0  0  0
    1.8336   -1.7955   -2.8619 H   0  0  0  0  0  0  0  0  0  0  0  0
    4.1996   -1.3821   -2.2367 H   0  0  0  0  0  0  0  0  0  0  0  0
  1  2  1  0
  2  3  1  0
  3  4  2  0
  4  5  1  0
  5  6  1  0
  6  7  1  0
  7  8  1  0
  8  9  1  0
  5 10  2  0
 10 11  1  0
 11 12  2  0
 12 13  1  0
 12  3  1  0
  1 14  1  0
  1 15  1  0
  1 16  1  0
  4 17  1  0
  6 18  1  0
  6 19  1  0
  7 20  1  0
  7 21  1  0
  8 22  1  0
  8 23  1  0
  9 24  1  0
 10 25  1  0
 11 26  1  0
 13 27  1  0
M  END
