
     RDKit          3D

 24 25  0  0  0  0  0  0  0  0999 V2000
   -2.8706    1.0387    1.2225 O   0  0  0  0  0  0  0  0  0  0  0  0
   -2.6969   -0.2847    0.8539 C   0  0  0  0  0  0  0  0  0  0  0  0
   -2.5196   -1.1166    1.7697 O   0  0  0  0  0  0  0  0  0  0  0  0
   -2.7154   -0.7280   -0.5578 C   0  0  0  0  0  0  0  0  0  0  0  0
   -1.4289   -1.3986   -0.8898 C   0  0  0  0  0  0  0  0  0  0  0  0
   -0.2436   -0.5576   -0.7524 C   0  0  0  0  0  0  0  0  0  0  0  0
    0.2466    0.2591   -1.7577 C   0  0  0  0  0  0  0  0  0  0  0  0
    1.3674    1.0378   -1.6022 C   0  0  0  0  0  0  0  0  0  0  0  0
    2.0344    1.0122   -0.4084 C   0  0  0  0  0  0  0  0  0  0  0  0
    3.1863    1.6680    0.0754 O   0  0  0  0  0  0  0  0  0  0  0  0
    3.6923    0.9039    1.1612 C   0  0  0  0  0  0  0  0  0  0  0  0
    2.4583    0.3990    1.6964 O   0  0  0  0  0  0  0  0  0  0  0  0
    1.5838    0.2184    0.6130 C   0  0  0  0  0  0  0  0  0  0  0  0
    0.4454   -0.5635    0.4344 C   0  0  0  0  0  0  0  0  0  0  0  0
   -3.3622    1.3234    2.0624 H   0  0  0  0  0  0  0  0  0  0  0  0
   -3.0048    0.0643   -1.2553 H   0  0  0  0  0  0  0  0  0  0  0  0
   -3.5303   -1.5076   -0.6289 H   0  0  0  0  0  0  0  0  0  0  0  0
   -1.2693   -2.3233   -0.2910 H   0  0  0  0  0  0  0  0  0  0  0  0
   -1.4574   -1.7479   -1.9628 H   0  0  0  0  0  0  0  0  0  0  0  0
   -0.2874    0.2645   -2.6807 H   0  0  0  0  0  0  0  0  0  0  0  0
    1.7520    1.6802   -2.3969 H   0  0  0  0  0  0  0  0  0  0  0  0
    4.3151    0.0451    0.7989 H   0  0  0  0  0  0  0  0  0  0  0  0
    4.1656    1.4985    1.9483 H   0  0  0  0  0  0  0  0  0  0  0  0
    0.1390   -1.1854    1.2927 H   0  0  0  0  0  0  0  0  0  0  0  0
  1  2  1  0
  2  3  2  0
  2  4  1  0
  4  5  1  0
  5  6  1  0
  6  7  2  0
  7  8  1  0
  8  9  2  0
  9 10  1  0
 10 11  1  0
 11 12  1  0
 12 13  1  0
 13 14  2  0
 14  6  1  0
 13  9  1  0
  1 15  1  0
  4 16  1  0
  4 17  1  0
  5 18  1  0
  5 19  1  0
  7 20  1  0
  8 21  1  0
 11 22  1  0
 11 23  1  0
 14 24  1  0
M  END
