
     RDKit          3D

 24 25  0  0  0  0  0  0  0  0999 V2000
    3.9952    1.1512    0.2984 O   0  0  0  0  0  0  0  0  0  0  0  0
    2.8074    0.4452    0.4933 C   0  0  0  0  0  0  0  0  0  0  0  0
    1.9042    1.0318    1.1448 O   0  0  0  0  0  0  0  0  0  0  0  0
    2.6225   -0.9263   -0.0417 C   0  0  0  0  0  0  0  0  0  0  0  0
    1.4174   -1.0778   -0.9411 C   0  0  0  0  0  0  0  0  0  0  0  0
    0.1463   -0.7455   -0.2988 C   0  0  0  0  0  0  0  0  0  0  0  0
   -0.5944   -1.6959    0.3994 C   0  0  0  0  0  0  0  0  0  0  0  0
   -1.7883   -1.3499    0.9876 C   0  0  0  0  0  0  0  0  0  0  0  0
   -2.2479   -0.0502    0.8802 C   0  0  0  0  0  0  0  0  0  0  0  0
   -3.3854    0.5960    1.3504 O   0  0  0  0  0  0  0  0  0  0  0  0
   -3.5254    1.8150    0.6136 C   0  0  0  0  0  0  0  0  0  0  0  0
   -2.1958    2.1225    0.2301 O   0  0  0  0  0  0  0  0  0  0  0  0
   -1.5213    0.8926    0.1919 C   0  0  0  0  0  0  0  0  0  0  0  0
   -0.3245    0.5495   -0.3992 C   0  0  0  0  0  0  0  0  0  0  0  0
    4.2704    1.9550    0.8699 H   0  0  0  0  0  0  0  0  0  0  0  0
    3.5525   -1.2347   -0.5620 H   0  0  0  0  0  0  0  0  0  0  0  0
    2.4532   -1.6535    0.8068 H   0  0  0  0  0  0  0  0  0  0  0  0
    1.3867   -2.1135   -1.3302 H   0  0  0  0  0  0  0  0  0  0  0  0
    1.5198   -0.4295   -1.8498 H   0  0  0  0  0  0  0  0  0  0  0  0
   -0.2377   -2.7372    0.4941 H   0  0  0  0  0  0  0  0  0  0  0  0
   -2.3819   -2.0914    1.5390 H   0  0  0  0  0  0  0  0  0  0  0  0
   -3.9504    2.5455    1.3105 H   0  0  0  0  0  0  0  0  0  0  0  0
   -4.1298    1.6579   -0.2889 H   0  0  0  0  0  0  0  0  0  0  0  0
    0.2074    1.3434   -0.9460 H   0  0  0  0  0  0  0  0  0  0  0  0
  1  2  1  0
  2  3  2  0
  2  4  1  0
  4  5  1  0
  5  6  1  0
  6  7  2  0
  7  8  1  0
  8  9  2  0
  9 10  1  0
 10 11  1  0
 11 12  1  0
 12 13  1  0
 13 14  2  0
 14  6  1  0
 13  9  1  0
  1 15  1  0
  4 16  1  0
  4 17  1  0
  5 18  1  0
  5 19  1  0
  7 20  1  0
  8 21  1  0
 11 22  1  0
 11 23  1  0
 14 24  1  0
M  END
