
     RDKit          3D

 27 27  0  0  0  0  0  0  0  0999 V2000
   -2.3654    2.3884    0.1131 C   0  0  0  0  0  0  0  0  0  0  0  0
   -2.7139    1.0567    0.3504 O   0  0  0  0  0  0  0  0  0  0  0  0
   -1.8664   -0.0163    0.1391 C   0  0  0  0  0  0  0  0  0  0  0  0
   -0.5805    0.2262   -0.3402 C   0  0  0  0  0  0  0  0  0  0  0  0
    0.3101   -0.7998   -0.5708 C   0  0  0  0  0  0  0  0  0  0  0  0
    1.6715   -0.5215   -1.0780 C   0  0  0  0  0  0  0  0  0  0  0  0
    2.6934   -0.3128   -0.0154 C   0  0  0  0  0  0  0  0  0  0  0  0
    2.3392    0.8477    0.8532 C   0  0  0  0  0  0  0  0  0  0  0  0
    2.2696    1.9923    0.0830 O   0  0  0  0  0  0  0  0  0  0  0  0
   -0.0945   -2.0967   -0.3165 C   0  0  0  0  0  0  0  0  0  0  0  0
   -1.3626   -2.3867    0.1604 C   0  0  0  0  0  0  0  0  0  0  0  0
   -2.2147   -1.3248    0.3743 C   0  0  0  0  0  0  0  0  0  0  0  0
   -3.4900   -1.5870    0.8514 O   0  0  0  0  0  0  0  0  0  0  0  0
   -1.8845    2.5083   -0.8683 H   0  0  0  0  0  0  0  0  0  0  0  0
   -3.3200    2.9835    0.0594 H   0  0  0  0  0  0  0  0  0  0  0  0
   -1.7153    2.7495    0.9348 H   0  0  0  0  0  0  0  0  0  0  0  0
   -0.2927    1.2511   -0.5314 H   0  0  0  0  0  0  0  0  0  0  0  0
    1.9534   -1.3570   -1.7487 H   0  0  0  0  0  0  0  0  0  0  0  0
    1.6068    0.4088   -1.6798 H   0  0  0  0  0  0  0  0  0  0  0  0
    3.6558   -0.0630   -0.5257 H   0  0  0  0  0  0  0  0  0  0  0  0
    2.8734   -1.2433    0.5910 H   0  0  0  0  0  0  0  0  0  0  0  0
    1.3251    0.6668    1.2751 H   0  0  0  0  0  0  0  0  0  0  0  0
    3.0915    0.9684    1.6735 H   0  0  0  0  0  0  0  0  0  0  0  0
    3.0596    2.5590    0.2705 H   0  0  0  0  0  0  0  0  0  0  0  0
    0.5563   -2.9574   -0.4756 H   0  0  0  0  0  0  0  0  0  0  0  0
   -1.6680   -3.4249    0.3574 H   0  0  0  0  0  0  0  0  0  0  0  0
   -3.8369   -2.5154    1.0539 H   0  0  0  0  0  0  0  0  0  0  0  0
  1  2  1  0
  2  3  1  0
  3  4  2  0
  4  5  1  0
  5  6  1  0
  6  7  1  0
  7  8  1  0
  8  9  1  0
  5 10  2  0
 10 11  1  0
 11 12  2  0
 12 13  1  0
 12  3  1  0
  1 14  1  0
  1 15  1  0
  1 16  1  0
  4 17  1  0
  6 18  1  0
  6 19  1  0
  7 20  1  0
  7 21  1  0
  8 22  1  0
  8 23  1  0
  9 24  1  0
 10 25  1  0
 11 26  1  0
 13 27  1  0
M  END
