
     RDKit          3D

 24 25  0  0  0  0  0  0  0  0999 V2000
    4.7739    0.5687    1.4213 O   0  0  0  0  0  0  0  0  0  0  0  0
    3.7428    0.6517    0.5092 C   0  0  0  0  0  0  0  0  0  0  0  0
    3.9741    1.2263   -0.5790 O   0  0  0  0  0  0  0  0  0  0  0  0
    2.3908    0.1047    0.7423 C   0  0  0  0  0  0  0  0  0  0  0  0
    1.5455    0.3823   -0.4619 C   0  0  0  0  0  0  0  0  0  0  0  0
    0.1736   -0.1164   -0.3480 C   0  0  0  0  0  0  0  0  0  0  0  0
   -0.2149   -1.3789   -0.7506 C   0  0  0  0  0  0  0  0  0  0  0  0
   -1.5213   -1.8031   -0.6220 C   0  0  0  0  0  0  0  0  0  0  0  0
   -2.4546   -0.9422   -0.0784 C   0  0  0  0  0  0  0  0  0  0  0  0
   -3.8184   -1.0442    0.1881 O   0  0  0  0  0  0  0  0  0  0  0  0
   -4.3500    0.2513    0.4238 C   0  0  0  0  0  0  0  0  0  0  0  0
   -3.2185    0.9966    0.8453 O   0  0  0  0  0  0  0  0  0  0  0  0
   -2.0960    0.3258    0.3331 C   0  0  0  0  0  0  0  0  0  0  0  0
   -0.7807    0.7215    0.1914 C   0  0  0  0  0  0  0  0  0  0  0  0
    5.5685    1.2281    1.4205 H   0  0  0  0  0  0  0  0  0  0  0  0
    1.9122    0.5321    1.6465 H   0  0  0  0  0  0  0  0  0  0  0  0
    2.4501   -1.0037    0.8530 H   0  0  0  0  0  0  0  0  0  0  0  0
    1.5063    1.4861   -0.6134 H   0  0  0  0  0  0  0  0  0  0  0  0
    2.0429   -0.0808   -1.3407 H   0  0  0  0  0  0  0  0  0  0  0  0
    0.5243   -2.0408   -1.1734 H   0  0  0  0  0  0  0  0  0  0  0  0
   -1.8241   -2.7769   -0.9319 H   0  0  0  0  0  0  0  0  0  0  0  0
   -5.1125    0.2699    1.2036 H   0  0  0  0  0  0  0  0  0  0  0  0
   -4.6816    0.7135   -0.5421 H   0  0  0  0  0  0  0  0  0  0  0  0
   -0.5323    1.7283    0.5262 H   0  0  0  0  0  0  0  0  0  0  0  0
  1  2  1  0
  2  3  2  0
  2  4  1  0
  4  5  1  0
  5  6  1  0
  6  7  2  0
  7  8  1  0
  8  9  2  0
  9 10  1  0
 10 11  1  0
 11 12  1  0
 12 13  1  0
 13 14  2  0
 14  6  1  0
 13  9  1  0
  1 15  1  0
  4 16  1  0
  4 17  1  0
  5 18  1  0
  5 19  1  0
  7 20  1  0
  8 21  1  0
 11 22  1  0
 11 23  1  0
 14 24  1  0
M  END
